T42/data/state_estimation/ES_Dx_03_2040_W_Bd/ES_Dx_03_2040_W_Bd_t11.csv
bus,vm_pu,va_degree,p_mw,q_mvar
1,0.999206,0.000517,116.922164,49.634402
7966,1.023787,-0.045028,-1.478525,-0.533998
7967,1.029587,-0.039047,-5.127060,-1.852028
7968,1.030070,-0.037839,-1.840023,-0.664652
7969,1.028985,-0.040108,-3.165594,-1.143438
7970,1.028038,-0.039503,-2.655740,-0.959319
7971,1.030091,-0.039200,-1.891102,-0.683115
7972,1.029357,-0.038461,-0.713808,-0.257803
7973,1.036450,-0.042699,-3.119228,-1.126727
7974,1.036082,-0.041166,-0.968738,-0.349935
7975,1.022776,-0.035403,-1.636104,-0.590962
7976,1.022180,-0.035297,-4.352043,-1.572045
7977,1.023977,-0.034735,-2.966319,-1.071426
7978,1.037868,-0.041416,-0.616389,-0.222705
7979,1.038208,-0.041616,-1.742750,-0.629608
7980,1.022914,-0.034287,-1.478544,-0.534012
7981,1.026047,-0.051408,-2.711225,-0.979327
7982,1.036865,-0.041315,-0.153027,-0.055318
7983,1.036602,-0.041847,-2.502753,-0.904183
7984,1.036181,-0.042438,-2.048522,-0.739920
7985,1.021354,-0.044812,-0.293516,-0.105986
7986,1.030225,-0.037037,-0.269457,-0.097380
7987,1.021662,-0.035753,-0.286685,-0.103544
7988,1.028718,-0.038247,-0.266050,-0.096152
7989,1.037498,-0.041168,-0.265748,-0.096040
7990,1.038418,-0.040613,-0.286716,-0.103622
7991,1.023435,-0.034520,-0.267758,-0.096688
7992,1.023141,-0.034606,-0.279906,-0.101178
7993,1.034817,-0.041259,-0.320692,-0.115784
7994,1.029390,-0.037761,-0.329513,-0.119074
7995,1.020866,-0.034225,-0.270664,-0.097747
7996,1.036417,-0.041814,-0.321328,-0.116126
7997,1.029521,-0.038008,-0.299226,-0.108022
7998,1.021099,-0.036007,-0.293571,-0.105994
7999,1.037940,-0.042257,-0.355994,-0.128478
8000,1.023817,-0.034127,-0.276639,-0.099805
8001,1.038147,-0.041110,-0.369996,-0.133730
8002,1.021234,-0.034891,-0.278570,-0.100556
8003,1.021660,-0.034271,-0.278641,-0.100683
8004,1.022397,-0.035040,-0.275967,-0.099699
8005,1.036392,-0.042932,-0.281723,-0.101749
8006,1.021166,-0.035478,-0.381918,-0.138047
8007,1.035219,-0.041219,-0.276509,-0.099920
8395,1.024040,-0.051178,-0.242023,-0.096811
8396,1.024725,-0.051334,-0.246040,-0.098566
8397,1.023945,-0.051232,-0.132363,-0.051897
8398,1.024752,-0.050926,-0.155710,-0.062330
8399,1.025031,-0.051560,-0.092425,-0.036627
8400,1.035510,-0.043269,-0.071747,-0.027884
8401,1.035595,-0.042501,-0.374220,-0.149396
8402,1.036348,-0.042539,-0.285978,-0.112042
8403,1.025191,-0.051466,-0.163856,-0.063427
8404,1.020123,-0.034549,-0.089018,-0.035070
8405,1.020985,-0.034925,-0.199276,-0.078852
8406,1.020129,-0.036387,-0.057721,-0.022181
8407,1.024880,-0.050475,-0.273148,-0.106468
8408,1.020190,-0.034905,-0.193064,-0.075587
8409,1.019597,-0.035453,-0.037897,-0.014287
8410,1.020618,-0.035397,-0.143006,-0.056711
8411,1.024979,-0.051094,-0.104501,-0.040749
8412,1.035716,-0.042284,-0.277256,-0.108232
8413,1.025677,-0.050834,-0.154020,-0.061284
8414,1.022128,-0.035886,-0.069767,-0.027027
8415,1.026791,-0.051189,-0.132898,-0.052406
8416,1.025593,-0.051319,-0.162371,-0.062737
8417,1.020453,-0.035491,-0.138322,-0.054617
8418,1.019285,-0.035309,-0.270210,-0.105466
8419,1.026360,-0.050662,-0.168558,-0.065335
8420,1.026511,-0.050495,-0.096614,-0.038592
8421,1.021953,-0.034139,-0.153258,-0.061194
8422,1.022251,-0.035715,-0.158167,-0.063243
8423,1.020748,-0.035873,-0.248441,-0.099529
8424,1.036561,-0.042332,-0.378266,-0.150904
8425,1.035031,-0.040850,-0.093979,-0.037460
8426,1.036796,-0.041657,-0.221255,-0.087713
8427,1.037144,-0.041665,-0.069766,-0.027111
8428,1.026892,-0.051791,-0.048883,-0.018581
8429,1.027022,-0.051150,-0.371888,-0.147293
8430,1.021038,-0.034947,-0.099725,-0.039875
8431,1.021801,-0.035332,-0.210795,-0.084530
8432,1.035620,-0.042499,-0.275667,-0.107494
8433,1.035280,-0.042271,-0.277549,-0.108340
8434,1.036985,-0.042145,-0.174678,-0.067875
8435,1.020620,-0.035275,-0.264620,-0.103059
8436,1.022295,-0.034569,-0.100685,-0.038752
8437,1.021237,-0.035940,-0.206909,-0.081556
8438,1.034571,-0.042231,-0.062430,-0.024120
8439,1.022339,-0.036015,-0.064933,-0.025112
8440,1.035182,-0.040716,-0.351790,-0.140084
8441,1.035924,-0.041484,-0.225175,-0.089382
8442,1.035155,-0.042005,-0.071354,-0.027775
8443,1.036780,-0.041804,-0.071264,-0.027548
8444,1.035961,-0.041239,-0.319297,-0.125703
8445,1.027109,-0.050506,-0.078255,-0.030611
8446,1.036329,-0.041829,-0.823823,-0.268100
8447,1.036069,-0.041040,-0.260313,-0.101879
8448,1.036578,-0.041324,-0.080204,-0.031363
8449,1.036903,-0.041197,-0.181277,-0.070614
8450,1.039280,-0.041074,0.000055,0.000066
8451,1.036116,-0.041294,-0.084871,-0.033498
8452,1.037122,-0.042347,-0.238258,-0.095087
8453,1.021596,-0.034904,-0.165305,-0.064101
8454,1.037237,-0.041910,-0.145127,-0.057893
8455,1.036548,-0.041702,-0.160479,-0.061980
8456,1.026379,-0.050613,-0.112923,-0.043827
8457,1.027239,-0.050330,-0.010396,-0.003829
8458,1.022386,-0.036264,-0.121840,-0.047768
8459,1.036264,-0.041527,-0.099286,-0.039782
8460,1.022006,-0.034566,-0.098323,-0.039305
8461,1.021882,-0.035352,-0.037701,-0.014110
8462,1.022779,-0.034487,-0.202794,-0.079739
8463,1.036965,-0.041681,-0.093863,-0.037371
8464,1.035392,-0.041045,-0.215650,-0.085291
8465,1.035968,-0.041515,-0.258397,-0.100079
8466,1.036187,-0.041696,-0.385637,-0.154371
8467,1.037160,-0.041484,-0.017084,-0.006249
8468,1.022383,-0.035577,-0.131126,-0.051707
8469,1.022195,-0.035091,-0.271885,-0.106300
8470,1.038020,-0.041623,-0.196780,-0.077307
8471,1.037445,-0.041929,-0.288683,-0.112615
8472,1.036053,-0.042082,-0.257350,-0.099538
8473,1.022505,-0.035524,-0.138975,-0.054689
8474,1.021981,-0.034966,-0.102837,-0.039681
8475,1.036647,-0.040962,-0.175952,-0.068423
8476,1.022426,-0.034486,-0.035432,-0.013276
8477,1.022297,-0.034899,-0.185059,-0.073053
8478,1.037594,-0.041955,-0.158112,-0.063034
8479,1.036531,-0.041191,-0.073761,-0.028749
8480,1.023051,-0.034891,-0.089919,-0.035514
8481,1.020965,-0.035098,-0.253867,-0.101644
8482,1.022618,-0.034155,-0.228194,-0.090441
8483,1.022198,-0.033963,-0.322575,-0.127267
8484,1.037684,-0.041923,-0.215608,-0.085920
8485,1.022791,-0.034522,-0.095706,-0.038103
8486,1.023539,-0.034908,0.000081,0.000027
8487,1.039010,-0.041342,-0.332761,-0.131520
8488,1.037559,-0.040563,-0.100244,-0.038620
8489,1.022010,-0.034915,-0.063574,-0.024455
8490,1.022824,-0.034366,-0.081014,-0.031830
8491,1.022548,-0.034809,-0.194150,-0.076187
8492,1.022794,-0.035438,-0.154675,-0.061854
8493,1.037244,-0.041154,-0.212979,-0.084111
8494,1.038812,-0.041117,-0.053261,-0.020323
8495,1.038477,-0.041095,-0.155449,-0.061983
8496,1.037087,-0.041444,-0.089568,-0.035415
8497,1.036128,-0.041839,-0.289915,-0.113922
8498,1.022609,-0.035031,-0.341136,-0.135087
8499,1.036450,-0.040763,-0.152375,-0.060685
8500,1.037159,-0.041904,-0.387048,-0.155015
8501,1.037919,-0.041104,-0.098410,-0.039158
8502,1.038247,-0.041258,-0.175689,-0.068015
8503,1.022325,-0.035387,-0.356961,-0.141827
8504,1.037662,-0.042080,-0.078918,-0.030819
8505,1.038136,-0.041680,-0.153725,-0.061217
8506,1.038314,-0.040899,-0.337719,-0.133947
8507,1.037945,-0.040946,-0.081684,-0.032138
8508,1.021894,-0.035371,-0.099335,-0.039743
8509,1.022599,-0.034822,-0.093408,-0.036985
8510,1.037303,-0.040967,-0.091922,-0.036337
8511,1.022409,-0.035497,-0.245338,-0.098103
8512,1.037890,-0.041800,-0.231732,-0.092609
8513,1.037700,-0.041822,-0.341799,-0.135474
8514,1.039442,-0.041363,-0.223135,-0.088804
8515,1.038735,-0.041436,-0.276274,-0.107641
8516,1.022882,-0.034596,-0.115686,-0.045115
8517,1.038512,-0.040705,-0.327677,-0.129497
8518,1.038383,-0.041187,-0.107177,-0.041516
8519,1.022280,-0.034212,-0.326989,-0.128955
8520,1.038849,-0.041522,-0.134975,-0.053221
8521,1.022892,-0.035133,-0.340389,-0.134805
8522,1.022915,-0.034154,-0.145826,-0.057783
8523,1.022144,-0.034421,-0.230660,-0.091622
8524,1.023780,-0.034341,-0.237397,-0.094713
8525,1.022541,-0.034594,-0.063731,-0.024525
8526,1.023277,-0.034071,-0.197940,-0.078107
8527,1.037832,-0.041313,-0.100419,-0.038583
8528,1.022103,-0.034694,-0.050597,-0.019236
8529,1.023753,-0.034605,-0.084591,-0.033259
8530,1.038461,-0.040281,-0.303200,-0.118634
8531,1.037943,-0.042152,-0.095722,-0.038041
8532,1.023521,-0.034968,-0.087941,-0.034930
8533,1.037464,-0.040919,-0.022756,-0.008350
8534,1.023024,-0.034143,-0.225822,-0.089795
8535,1.038042,-0.040675,-0.082676,-0.032404
8536,1.038587,-0.040644,-0.060528,-0.023126
8537,1.024004,-0.034315,-0.095889,-0.038100
8538,1.022861,-0.034703,-0.095710,-0.038071
8539,1.035499,-0.041520,-0.377634,-0.151252
8540,1.036454,-0.041770,-0.128768,-0.050439
8541,1.036947,-0.042927,-0.199702,-0.078413
8542,1.038903,-0.041890,-0.150353,-0.059953
8543,1.022019,-0.034139,-0.194174,-0.076377
8544,1.022243,-0.034592,-0.250664,-0.100717
8545,1.035742,-0.040991,-0.173120,-0.067114
8546,1.022612,-0.034504,-0.362765,-0.145095
8547,1.023301,-0.034958,-0.196724,-0.077190
8548,1.023441,-0.035429,-0.287419,-0.112179
8549,1.035453,-0.040579,-0.192704,-0.075427
8550,1.035376,-0.041369,-0.196315,-0.077368
8551,1.022704,-0.035097,-0.045423,-0.017212
8552,1.035392,-0.040611,-0.056854,-0.021845
8553,1.037953,-0.041624,-0.110830,-0.043016
8554,1.037528,-0.041013,-0.064542,-0.024978
8555,1.038107,-0.041690,-0.237028,-0.094571
8556,1.036369,-0.040371,-0.084385,-0.033299
8557,1.022845,-0.034341,-0.176452,-0.068738
8558,1.038115,-0.041318,-0.236372,-0.094142
8559,1.037484,-0.041129,-0.053736,-0.020565
8560,1.035589,-0.041057,-0.211038,-0.083241
8561,1.021148,-0.034475,-0.087747,-0.034598
8562,1.021804,-0.034000,-0.148249,-0.059067
8563,1.035796,-0.041221,-0.183085,-0.071210
8564,1.035717,-0.041942,-0.071747,-0.027840
8565,1.037412,-0.042389,-0.214677,-0.084609
8566,1.021844,-0.033599,-0.136675,-0.053966
8567,1.038686,-0.041094,-0.320321,-0.126105
8568,1.038277,-0.041483,-0.229728,-0.091263
8569,1.036884,-0.041339,-0.197192,-0.077479
8570,1.023379,-0.034062,-0.199855,-0.078805
8571,1.023233,-0.034481,-0.224822,-0.089062
8572,1.021160,-0.033608,-0.112066,-0.043574
8573,1.037528,-0.041390,-0.132563,-0.052243
8574,1.021746,-0.034095,-0.329340,-0.130280
8575,1.037796,-0.042027,-0.202122,-0.079516
8576,1.022313,-0.034919,-0.098474,-0.039258
8577,1.038243,-0.040931,-0.145709,-0.057836
8578,1.021617,-0.034430,-0.031340,-0.011777
8579,1.037547,-0.041584,-0.203705,-0.081242
8580,1.038018,-0.040572,-0.074196,-0.028917
8581,1.022599,-0.034830,-0.076300,-0.029849
8582,1.038820,-0.041484,-0.159354,-0.063680
8583,1.038409,-0.041526,-0.034329,-0.012794
8584,1.022312,-0.033786,-0.213915,-0.084627
8585,1.035761,-0.041007,-0.230855,-0.091867
8586,1.036753,-0.041621,-0.071938,-0.028103
8587,1.021437,-0.035192,-0.217446,-0.086133
8588,1.037610,-0.041957,-0.363978,-0.144966
8589,1.022998,-0.035795,-0.103327,-0.040021
8590,1.021633,-0.035258,-0.061650,-0.023756
8591,1.036671,-0.041665,-0.239967,-0.096081
8592,1.037519,-0.041038,-0.251005,-0.100942
8593,1.028544,-0.038939,-0.378125,-0.150885
8594,1.028490,-0.038258,-0.204299,-0.080909
8595,1.022084,-0.034935,-0.251954,-0.101637
8596,1.023341,-0.034799,-0.207412,-0.082039
8597,1.029389,-0.037914,-0.148717,-0.059057
8598,1.022983,-0.034139,-0.299297,-0.117113
8599,1.037102,-0.041143,-0.083610,-0.033022
8600,1.021899,-0.035899,-0.283820,-0.111368
8601,1.022128,-0.035294,-0.169811,-0.066013
8602,1.021463,-0.034219,-0.056981,-0.021838
8603,1.022167,-0.035084,-0.354009,-0.140981
8604,1.022480,-0.035573,-0.237506,-0.094730
8605,1.036513,-0.041082,-0.094091,-0.037393
8606,1.035488,-0.041101,-0.121655,-0.047574
8607,1.036492,-0.041177,-0.150117,-0.059444
8608,1.022548,-0.035710,-0.093288,-0.036946
8609,1.038048,-0.041476,-0.266860,-0.103819
8610,1.029153,-0.038228,-0.146992,-0.058379
8611,1.023261,-0.035206,-0.271484,-0.105734
8612,1.037181,-0.041628,-0.081304,-0.031845
8613,1.038986,-0.041554,-0.061540,-0.023690
8614,1.022584,-0.034404,-0.378723,-0.152024
8615,1.021771,-0.035188,-0.164012,-0.066615
8616,1.022154,-0.033992,-0.257993,-0.100087
8617,1.022100,-0.035122,-0.169434,-0.065839
8618,1.021595,-0.035343,-0.168366,-0.065351
8619,1.021703,-0.034933,-0.085186,-0.033517
8620,1.022779,-0.035719,-0.095831,-0.038206
8621,1.037971,-0.041052,-0.077103,-0.030074
8622,1.036169,-0.040373,-0.265628,-0.103314
8623,1.022663,-0.035717,-0.219897,-0.086967
8624,1.035849,-0.041128,-0.892600,-0.296817
8625,1.027892,-0.037943,-0.093753,-0.037202
8626,1.028690,-0.038050,-0.110780,-0.043043
8627,1.037775,-0.042162,-0.124944,-0.048755
8628,1.036065,-0.042044,-0.207587,-0.081469
8629,1.036727,-0.042169,-0.105958,-0.041173
8630,1.037290,-0.041325,-0.160103,-0.063813
8631,1.038255,-0.040918,-0.088397,-0.034899
8632,1.022366,-0.034365,-0.031585,-0.011791
8633,1.021253,-0.035240,-0.100275,-0.039991
8634,1.037092,-0.041567,-0.247066,-0.098593
8635,1.022276,-0.035072,-0.237399,-0.094863
8636,1.022901,-0.036203,-0.258833,-0.100332
8637,1.036782,-0.041535,-0.326190,-0.128828
8638,1.037494,-0.041313,-0.142048,-0.056212
8639,1.035800,-0.042534,-0.140342,-0.055540
8640,1.036330,-0.042228,-0.190383,-0.074337
8641,1.022224,-0.035237,-0.357443,-0.141944
8642,1.037990,-0.040674,-0.120669,-0.047065
8643,1.028245,-0.038258,-0.085315,-0.033568
8644,1.021437,-0.035480,-0.111155,-0.043099
8645,1.029227,-0.039023,-0.217068,-0.086102
8646,1.035971,-0.041174,-0.082535,-0.032393
8647,1.037464,-0.041237,-0.119493,-0.046797
8648,1.030140,-0.038709,-0.249477,-0.100082
8649,1.036878,-0.041298,-0.128468,-0.050377
8650,1.022436,-0.036322,-0.301513,-0.118434
8651,1.036733,-0.042138,-0.151671,-0.060447
8652,1.029444,-0.038435,-0.171555,-0.066829
8653,1.029159,-0.038846,-0.061768,-0.023742
8654,1.020747,-0.034767,-0.051337,-0.019601
8655,1.036440,-0.041469,-0.200200,-0.078968
8656,1.037960,-0.041910,-0.147404,-0.058586
8657,1.022160,-0.034805,-0.402802,-0.162799
8658,1.028639,-0.038006,-0.230547,-0.091719
8659,1.021631,-0.035233,-0.139510,-0.055293
8660,1.029116,-0.038954,-0.093467,-0.037129
8661,1.029682,-0.038335,-0.134605,-0.053141
8662,1.036259,-0.042069,-0.682447,-0.220900
8663,1.036001,-0.041401,-0.130574,-0.051316
8664,1.029121,-0.039036,-0.059592,-0.022973
8665,1.037683,-0.041869,-0.156026,-0.062299
8666,1.022125,-0.034429,-0.114949,-0.044814
8667,1.020817,-0.035564,-0.376126,-0.150155
8668,1.029459,-0.038803,-0.290521,-0.113463
8669,1.037627,-0.042150,-0.296792,-0.117131
8670,1.029063,-0.038280,-0.194677,-0.076287
8671,1.022190,-0.035495,-0.139719,-0.055488
8672,1.029422,-0.038288,-0.273850,-0.106980
8673,1.029495,-0.038912,-0.079609,-0.031264
8674,1.029584,-0.039128,-0.070922,-0.027519
8675,1.030800,-0.038773,-0.132564,-0.052225
8676,1.029858,-0.038133,-0.094775,-0.037596
8677,1.021305,-0.035621,-0.199542,-0.078328
8678,1.022043,-0.035123,-0.158901,-0.063554
8679,1.029535,-0.038324,-0.132191,-0.051904
8680,1.029710,-0.037875,-0.274826,-0.106292
8681,1.029219,-0.038644,-0.229006,-0.090881
8682,1.028379,-0.039416,-0.097200,-0.038681
8683,1.022901,-0.035070,-0.070173,-0.027215
8684,1.021810,-0.035008,-0.264974,-0.103078
8685,1.029870,-0.039286,-0.293647,-0.115449
8686,1.029817,-0.039626,-0.086320,-0.033989
8687,1.036607,-0.042099,-0.065104,-0.025218
8688,1.028957,-0.038523,-0.090598,-0.035969
8689,1.031246,-0.037599,0.000078,-0.000148
8690,1.030458,-0.038320,-0.927827,-0.302820
8691,1.030600,-0.038354,-0.151008,-0.060100
8692,1.029118,-0.038476,-0.064988,-0.025117
8693,1.029319,-0.037422,-0.205607,-0.081363
8694,1.030589,-0.038671,-0.302780,-0.119045
8695,1.021194,-0.034216,-0.212330,-0.083774
8696,1.027898,-0.039827,-0.091499,-0.036135
8697,1.027633,-0.040101,-0.106485,-0.041154
8698,1.028672,-0.038656,-0.280401,-0.109354
8699,1.029674,-0.038563,-0.061947,-0.023809
8700,1.029903,-0.038100,-0.262634,-0.101976
8701,1.028114,-0.040046,-0.180375,-0.070186
8702,1.030304,-0.038023,-0.275239,-0.106800
8703,1.029975,-0.038904,-0.070215,-0.027279
8704,1.030143,-0.038409,-0.098053,-0.039014
8705,1.029551,-0.038854,-0.219491,-0.087385
8706,1.021612,-0.034901,-0.214468,-0.084751
8707,1.029723,-0.037790,-0.157866,-0.063207
8708,1.031193,-0.037757,-0.103851,-0.040159
8709,1.029133,-0.038355,-0.279625,-0.109060
8710,1.030145,-0.037380,-0.082444,-0.032369
8711,1.021003,-0.035455,-0.097184,-0.038754
8712,1.027987,-0.040153,-0.085220,-0.033553
8713,1.029729,-0.037314,-0.321925,-0.126715
8714,1.030989,-0.039037,-0.251338,-0.100901
8715,1.030780,-0.039054,-0.146949,-0.058655
8716,1.031123,-0.038323,-0.196592,-0.077118
8717,1.031852,-0.038266,-0.134310,-0.053008
8718,1.030920,-0.037534,-0.385161,-0.154110
8719,1.029079,-0.038779,-0.187940,-0.073602
8720,1.029572,-0.037879,-0.100661,-0.038880
8721,1.027649,-0.038497,-0.087329,-0.034646
8722,1.028153,-0.039338,-0.097538,-0.038966
8723,1.031353,-0.037986,-0.133999,-0.052661
8724,1.029773,-0.038156,-0.120394,-0.047079
8725,1.029231,-0.037779,-0.137706,-0.054311
8726,1.029976,-0.038889,-0.320785,-0.126311
8727,1.030165,-0.038409,-0.060088,-0.022958
8728,1.030149,-0.037146,-0.250681,-0.100931
8729,1.028501,-0.040147,-0.120082,-0.046982
8730,1.030071,-0.038362,-0.139168,-0.054895
8731,1.029657,-0.038308,-0.109395,-0.042438
8732,1.028514,-0.039257,-0.253191,-0.101532
8733,1.030160,-0.038503,-0.148697,-0.059292
8734,1.031116,-0.037844,-0.360468,-0.144088
8735,1.031364,-0.037624,-0.251137,-0.100718
8736,1.032496,-0.037796,-0.082625,-0.032395
8737,1.027505,-0.040271,-0.114577,-0.044611
8738,1.029272,-0.040080,-0.070777,-0.027510
8739,1.030512,-0.038380,-0.210568,-0.083051
8740,1.029726,-0.038111,-0.333181,-0.131734
8741,1.030552,-0.037699,-0.097473,-0.038897
8742,1.030925,-0.038446,-0.143938,-0.057262
8743,1.027340,-0.039255,-0.191792,-0.074867
8744,1.027894,-0.039021,-0.044022,-0.016655
8745,1.029648,-0.038667,-0.132066,-0.052060
8746,1.028545,-0.037807,-0.132860,-0.052258
8747,1.021947,-0.044572,-0.124761,-0.048700
8748,1.022055,-0.044977,-0.171776,-0.066610
8749,1.030983,-0.038935,-0.079280,-0.030911
8750,1.029888,-0.037323,-0.098162,-0.039316
8751,1.022982,-0.043233,-0.071731,-0.027866
8752,1.023400,-0.043018,-0.397372,-0.158248
8753,1.028225,-0.037965,-0.119724,-0.046850
8754,1.028967,-0.037784,-0.100938,-0.038901
8755,1.030674,-0.038269,-0.249730,-0.099891
8756,1.023065,-0.043251,-0.249224,-0.099092
8757,1.029199,-0.037659,-0.093614,-0.037259
8758,1.028781,-0.039340,-0.093884,-0.037358
8759,1.023569,-0.043767,-0.114576,-0.044450
8760,1.030311,-0.037611,-0.090355,-0.035868
8761,1.029769,-0.039138,-0.266101,-0.104415
8762,1.028468,-0.039148,-0.089945,-0.035396
8763,1.027494,-0.037762,-0.209009,-0.082554
8764,1.023053,-0.043850,-0.040226,-0.015107
8765,1.029605,-0.039015,-0.061203,-0.023509
8766,1.029934,-0.038660,-0.252734,-0.101641
8767,1.023300,-0.043688,-0.075301,-0.029459
8768,1.022631,-0.043968,-0.155563,-0.061965
8769,1.023108,-0.043966,-0.313062,-0.122238
8770,1.023426,-0.044173,-0.382126,-0.151249
8771,1.021869,-0.044131,-0.202120,-0.079040
8772,1.022918,-0.044109,-0.104392,-0.040370
8773,1.029723,-0.038570,-0.045746,-0.017307
8774,1.023741,-0.044040,-0.129546,-0.050787
8775,1.030001,-0.038453,-0.203090,-0.080144
8776,1.022886,-0.044473,-0.143654,-0.056925
8777,1.022641,-0.043257,-0.091715,-0.036309
8778,1.022115,-0.043815,-0.101827,-0.039322
8779,1.029463,-0.038691,-0.311935,-0.123101
8780,1.022306,-0.044494,-0.115947,-0.045126
8781,1.027527,-0.037466,-0.154153,-0.061325
8782,1.028533,-0.037577,-0.048881,-0.018581
8783,1.022628,-0.044053,-0.270741,-0.104739
8784,1.023719,-0.044185,-0.048960,-0.018609
8785,1.007096,-0.009884,-0.000016,0.000050
8786,1.007009,-0.011004,-0.000135,0.000005
8787,1.007325,-0.011913,0.000057,0.000099
8788,1.007341,-0.011608,-0.000075,-0.000039
